unit Run;

interface

uses Global, interface_global, interface_run, interface_rootunit, interface_tempprocessing, interface_climprocessing, interface_simul, interface_inforesults;

PROCEDURE InitializeSimulation(TheProjectFile_ : string;
                               TheProjectType : repTypeProject);

PROCEDURE FinalizeSimulation();

PROCEDURE InitializeRun(NrRun : ShortInt; TheProjectType : repTypeProject);

PROCEDURE AdvanceOneTimeStep();

PROCEDURE FinalizeRun1(NrRun : ShortInt;
                       TheProjectFile : string;
                       TheProjectType : repTypeProject);
PROCEDURE FinalizeRun2(NrRun : ShortInt; TheProjectType : repTypeProject);

PROCEDURE RunSimulation(TheProjectFile_ : string;
                        TheProjectType : repTypeProject);

implementation

uses SysUtils,TempProcessing,ClimProcessing,RootUnit,Simul,StartUnit,InfoResults;


var  fHarvest : text;
     SumETo, SumGDD, Ziprev,SumGDDPrev,TESTVAL : double;
     WaterTableInProfile,StartMode,NoMoreCrop : BOOLEAN;
     SumKcTop,SumKcTopStress,SumKci,Zeval,CCxCropWeedsNoSFstress,fWeedNoS,
     CCxTotal,CCoTotal,CDCTotal,GDDCDCTotal,WeedRCi,CCiActualWeedInfested : double;

     TimeSenescence : double; // calendar days or GDDays
     CGCadjustmentAfterCutting : BOOLEAN;
     BprevSum,YprevSum,SumGDDcuts : double;
     HItimesBEF,ScorAT1,SCorAT2,HItimesAT1,HItimesAT2,HItimesAT,alfaHI,alfaHIAdj : double;
     TheProjectFile : string;

     // DelayedGermination
     NextSimFromDayNr : LongInt; // the Simulation.FromDayNr for next run if delayed germination and KeepSWC

     // Evaluation
     DayNr1Eval,DayNrEval : LongInt;
     LineNrEval : INTEGER;
     
// specific for StandAlone
     PreviousSumETo,PreviousSumGDD : double;
     PreviousBmob,PreviousBsto : double;
     NoYear : BOOLEAN;
     StageCode : ShortInt;
     PreviousDayNr : LongInt;
     



PROCEDURE OpenOutputRun(TheProjectType : repTypeProject);
VAR totalname : string;

BEGIN
CASE TheProjectType OF
      TypePRO : totalname := CONCAT(GetPathNameOutp(),GetOutputName(),'PROseason.OUT');
      TypePRM : totalname := CONCAT(GetPathNameOutp(),GetOutputName(),'PRMseason.OUT');
      end;
fRun_open(totalname, 'w');
fRun_write('AquaCrop 7.0 (October 2021) - Output created on (date) : ' + DateToStr(Date) + '   at (time) : ' + TimeToStr(Time));
fRun_write('');
fRun_write('    RunNr     Day1   Month1    Year1     Rain      ETo       GD     CO2' +
           '      Irri   Infilt   Runoff    Drain   Upflow        E     E/Ex       Tr      TrW   Tr/Trx' +
           '    SaltIn   SaltOut    SaltUp  SaltProf' +
           '     Cycle   SaltStr  FertStr  WeedStr  TempStr   ExpStr   StoStr' +
           '  BioMass  Brelative   HI    Y(dry)  Y(fresh)    WPet      Bin     Bout     DayN   MonthN    YearN');
fRun_write('                                           mm       mm  degC.day    ppm' +
           '        mm       mm       mm       mm       mm       mm        %       mm       mm        %' +
           '    ton/ha    ton/ha    ton/ha    ton/ha' +
           '      days       %        %        %        %        %        %  ' +
           '  ton/ha        %       %    ton/ha   ton/ha    kg/m3   ton/ha   ton/ha');
END; (* OpenOutputRun *)


PROCEDURE OpenOutputDaily(TheProjectType : repTypeProject);
VAR totalname, tempstring : string;
BEGIN
CASE TheProjectType OF
      TypePRO : totalname := CONCAT(GetPathNameOutp(),GetOutputName(),'PROday.OUT');
      TypePRM : totalname := CONCAT(getPathNameOutp(),GetOutputName(),'PRMday.OUT');
      end;
fDaily_open(totalname, 'w');
WriteStr(tempstring, 'AquaCrop 7.0 (October 2021) - Output created on (date) : ',DateToStr(Date),'   at (time) : ',TimeToStr(Time));
fDaily_write(tempstring);
END; (* OpenOutputDaily *)


PROCEDURE OpenPart1MultResults(TheProjectType : repTypeProject;
                               VAR fHarvest : text);
VAR totalname : string;
BEGIN
CASE TheProjectType OF
      TypePRO : totalname := CONCAT(GetPathNameOutp(),GetOutputName(),'PROharvests.OUT');
      TypePRM : totalname := CONCAT(GetPathNameOutp(),GetOutputName(),'PRMharvests.OUT');
      end;
Assign(fHarvest,totalname);
Rewrite(fHarvest);
WRITELN(fHarvest,'AquaCrop 7.0 (October 2021) - Output created on (date) : ',DateToStr(Date),'   at (time) : ',TimeToStr(Time));
WRITELN(fHarvest,'Biomass and Yield at Multiple cuttings');
END; (* OpenPart1MultResults *)



PROCEDURE WriteTitleDailyResults(TheProjectType : repTypeProject;
                                 TheNrRun : ShortInt);
VAR Str1,Str2, tempstring : string;
    NodeD,Zprof : double;
    Compi : INTEGER;
BEGIN
// A. Run number
fDaily_write('');
IF (TheProjectType = TypePRM) THEN
   BEGIN
   Str(TheNrRun:4, Str1);
   WriteStr(tempstring, '   Run:',Str1);
   fDaily_write(tempstring);
   END;

// B. thickness of soil profile and root zone
IF ((Out1Wabal) OR (Out3Prof = true) OR (Out4Salt = true)) THEN
   BEGIN
   Zprof := 0;
   FOR compi :=1 to GetNrCompartments() DO Zprof := Zprof + GetCompartment_Thickness(compi);
   Str(Zprof:4:2,Str1);
   IF (ROUND(GetSoil().RootMax*1000) = ROUND(GetCrop().RootMax*1000))
      THEN Str(GetCrop().RootMax:4:2,Str2)
      ELSE Str(GetSoil().RootMax:4:2,Str2);
   END;

// C. 1st line title
//WriteStr(tempstring, '   Day Month  Year   DAP Stage');
fDaily_write('   Day Month  Year   DAP Stage', false);

// C1. Water balance
IF Out1Wabal THEN
   BEGIN
   IF ((Out2Crop = true) OR (Out3Prof = true) OR (Out4Salt = true)
      OR (Out5CompWC = true) OR (Out6CompEC = true) OR (Out7Clim = true)) 
        THEN BEGIN
            WriteStr(tempstring, '   WC(',Str1,')   Rain     Irri   Surf   Infilt   RO    Drain       CR    Zgwt',
               '       Ex       E     E/Ex     Trx       Tr  Tr/Trx    ETx      ET  ET/ETx');
            fDaily_write(tempstring, False);
            END
        ELSE BEGIN
            WriteStr(tempstring, '   WC(',Str1,')   Rain     Irri   Surf   Infilt   RO    Drain       CR    Zgwt',
               '       Ex       E     E/Ex     Trx       Tr  Tr/Trx    ETx      ET  ET/ETx');
            fDaily_write(tempstring);
        END;
   END;
// C2. Crop development and yield
IF Out2Crop THEN
   BEGIN
   IF ((Out3Prof = true) OR (Out4Salt = true) OR (Out5CompWC = true) OR (Out6CompEC = true) OR (Out7Clim = true)) THEN
      BEGIN
      WriteStr(tempstring, '      GD       Z     StExp  StSto  StSen StSalt StWeed   CC      CCw     StTr  Kc(Tr)     Trx       Tr      TrW  Tr/Trx   WP',
        '    Biomass     HI    Y(dry)  Y(fresh)  Brelative    WPet      Bin     Bout');
      fDaily_write(tempstring, False);
      END
      ELSE BEGIN 
      WriteStr(tempstring, '      GD       Z     StExp  StSto  StSen StSalt StWeed   CC      CCw     StTr  Kc(Tr)     Trx       Tr      TrW  Tr/Trx   WP',
        '    Biomass     HI    Y(dry)  Y(fresh)  Brelative    WPet      Bin     Bout');
      fDaily_write(tempstring);
      END;
   END;
// C3. Profile/Root zone - Soil water content
IF Out3Prof THEN
   BEGIN
   IF ((Out4Salt = true) OR (Out5CompWC = true) OR (Out6CompEC = true) OR (Out7Clim = true)) THEN
      BEGIN
      WriteStr(tempstring,'  WC(',Str1,') Wr(',Str2,')     Z       Wr    Wr(SAT)    Wr(FC)   Wr(exp)   Wr(sto)   Wr(sen)   Wr(PWP)');
      fDaily_write(tempstring, False);
      END
      ELSE BEGIN
      WriteStr(tempstring,'  WC(',Str1,') Wr(',Str2,')     Z       Wr    Wr(SAT)    Wr(FC)   Wr(exp)   Wr(sto)   Wr(sen)   Wr(PWP)');
      fDaily_write(tempstring);
      END;
   END;
// C4. Profile/Root zone - soil salinity
IF Out4Salt THEN
   BEGIN
   IF ((Out5CompWC = true) OR (Out6CompEC = true) OR (Out7Clim = true)) THEN 
      BEGIN 
      WriteStr(tempstring,'    SaltIn    SaltOut   SaltUp   Salt(',Str1,')  SaltZ     Z       ECe    ECsw   StSalt  Zgwt    ECgw');
      fDaily_write(tempstring, False);
      END
      ELSE BEGIN
      WriteStr(tempstring,'    SaltIn    SaltOut   SaltUp   Salt(',Str1,')  SaltZ     Z       ECe    ECsw   StSalt  Zgwt    ECgw');
      fDaily_write(tempstring);
      END;
   END;
// C5. Compartments - Soil water content
IF Out5CompWC THEN
   BEGIN
    fDaily_write('       WC01', false);
   FOR Compi := 2 TO (GetNrCompartments()-1) DO
       BEGIN
       Str(Compi:2,Str1);
       WriteStr(tempstring,'       WC',Str1);
       fDaily_write(tempstring, False);
       END;
   Str(GetNrCompartments():2,Str1);
   IF ((Out6CompEC = true) OR (Out7Clim = true)) THEN
      BEGIN 
      WriteStr(tempstring,'       WC',Str1);
      fDaily_write(tempstring, False);
      END
      ELSE BEGIN
      WriteStr(tempstring, '       WC',Str1);
      fDaily_write(tempstring);
      END;
   END;
// C6. Compartmens - Electrical conductivity of the saturated soil-paste extract
IF Out6CompEC THEN
   BEGIN
   fDaily_write('      ECe01', false);
   FOR Compi := 2 TO (GetNrCompartments()-1) DO
       BEGIN
       Str(Compi:2,Str1);
       WriteStr(tempstring,'      ECe',Str1);
       fDaily_write(tempstring, False);
       END;
   Str(GetNrCompartments():2,Str1);
   IF (Out7Clim = true) THEN
      BEGIN
      WriteStr(tempstring,'      ECe',Str1);
      fDaily_write(tempstring, False);
      END
      ELSE BEGIN
      WriteStr(tempstring,'      ECe',Str1);
      fDaily_write(tempstring);
      END;
   END;
// C7. Climate input parameters
IF Out7Clim THEN fDaily_write('     Rain       ETo      Tmin      Tavg      Tmax      CO2');

fDaily_write('                              ', false);
// D1. Water balance
IF Out1Wabal THEN
   BEGIN
   IF ((Out2Crop = true) OR (Out3Prof = true) OR (Out4Salt = true)
      OR (Out5CompWC = true) OR (Out6CompEC = true) OR (Out7Clim = true)) THEN 
        BEGIN 
            WriteStr(tempstring, '        mm      mm       mm     mm     mm     mm       mm       mm      m ',
               '       mm       mm     %        mm       mm    %        mm      mm       %');
            fDaily_write(tempstring, False);
        END
      ELSE BEGIN
            WriteStr(tempstring,'        mm      mm       mm     mm     mm     mm       mm       mm      m ',
               '       mm       mm     %        mm       mm    %        mm      mm       %');
            fDaily_write(tempstring);
      END;
   END;
// D2. Crop development and yield
IF Out2Crop THEN
   BEGIN
   IF ((Out3Prof = true) OR (Out4Salt = true) OR (Out5CompWC = true) OR (Out6CompEC = true) OR (Out7Clim = true)) THEN
      BEGIN
      WriteStr(tempstring, '  degC-day     m       %      %      %      %      %      %       %       %       -        mm       mm       mm    %     g/m2',
        '    ton/ha      %    ton/ha   ton/ha       %       kg/m3   ton/ha   ton/ha');
      fDaily_write(tempstring, False);   
      END
      ELSE BEGIN
        WriteStr(tempstring, '  degC-day     m       %      %      %      %      %      %       %       %       -        mm       mm       mm    %     g/m2',
        '    ton/ha      %    ton/ha   ton/ha       %       kg/m3   ton/ha   ton/ha');
       fDaily_write(tempstring);  
      END;
   END;
// D3. Profile/Root zone - Soil water content
IF Out3Prof THEN
   BEGIN
   IF ((Out4Salt) OR (Out5CompWC = true) OR (Out6CompEC = true) OR (Out7Clim = true)) THEN
      fDaily_write('      mm       mm       m       mm        mm        mm        mm        mm        mm         mm', false)
      ELSE fDaily_write('      mm       mm       m       mm        mm        mm        mm        mm        mm        mm');
   END;
// D4. Profile/Root zone - soil salinity
IF Out4Salt THEN
   BEGIN
   IF ((Out5CompWC = true) OR (Out6CompEC = true) OR (Out7Clim = true)) THEN
      fDaily_write('    ton/ha    ton/ha    ton/ha    ton/ha    ton/ha     m      dS/m    dS/m      %     m      dS/m', false)
      ELSE fDaily_write('    ton/ha    ton/ha    ton/ha    ton/ha    ton/ha     m      dS/m    dS/m      %     m      dS/m');
   END;
// D5. Compartments - Soil water content
IF Out5CompWC THEN
   BEGIN
   NodeD := GetCompartment_Thickness(1)/2;
   WriteStr(tempstring, NodeD:11:2);
   fDaily_write(tempstring, False);
   FOR Compi := 2 TO (GetNrCompartments()-1) DO
       BEGIN
       NodeD := NodeD + GetCompartment_Thickness(Compi-1)/2 + GetCompartment_Thickness(Compi)/2;
       WriteStr(tempstring, NodeD:11:2);
       fDaily_write(tempstring, False);
       END;
   NodeD := NodeD + GetCompartment_Thickness(GetNrCompartments()-1)/2 + GetCompartment_Thickness(GetNrCompartments())/2;
   IF ((Out6CompEC = true) OR (Out7Clim = true)) THEN
      BEGIN
      WriteStr(tempstring, NodeD:11:2);
      fDaily_write(tempstring, False);
      END
      ELSE BEGIN
      WriteStr(tempstring, NodeD:11:2);
      fDaily_write(tempstring);
      END;
   END;
// D6. Compartmens - Electrical conductivity of the saturated soil-paste extract
IF Out6CompEC THEN
   BEGIN
   NodeD := GetCompartment_Thickness(1)/2;
   WriteStr(tempstring, NodeD:11:2);
   fDaily_write(tempstring, False);
   FOR Compi := 2 TO (GetNrCompartments()-1) DO
       BEGIN
       NodeD := NodeD + GetCompartment_Thickness(Compi-1)/2 + GetCompartment_Thickness(compi)/2;
       WriteStr(tempstring, NodeD:11:2);
       fDaily_write(tempstring, False);
       END;
   NodeD := NodeD + GetCompartment_Thickness(GetNrCompartments()-1)/2 + GetCompartment_Thickness(GetNrCompartments())/2;
   IF (Out7Clim = true) THEN
      BEGIN
      WriteStr(tempstring, NodeD:11:2);
      fDaily_write(tempstring, False);
      END
      ELSE BEGIN
      WriteStr(tempstring, NodeD:11:2);
      fDaily_write(tempstring);
      END;
   END;
// D7. Climate input parameters
IF Out7Clim THEN fDaily_write('       mm        mm     degC      degC      degC       ppm');
//end;
END; (* WriteTitleDailyResults *)


PROCEDURE WriteTitlePart1MultResults(TheProjectType : repTypeProject;
                                     TheNrRun : ShortInt;
                                     VAR fHarvest : text);
VAR Str1 : string;
    Dayi,Monthi,Yeari : INTEGER;
    Nr : Double;
BEGIN
// A. Run number
WRITELN(fHarvest);
IF (TheProjectType = TypePRM) THEN
   BEGIN
   Str(TheNrRun:4,Str1);
   WRITELN(fHarvest,'   Run:',Str1);
   END;
// B. Title
WRITELN(fHarvest,'    Nr   Day  Month Year   DAP Interval  Biomass    Sum(B)   Dry-Yield  Sum(Y) Fresh-Yield  Sum(Y)');
WRITELN(fHarvest,'                                 days     ton/ha    ton/ha    ton/ha    ton/ha    ton/ha    ton/ha');
// C. start crop cycle
DetermineDate(GetCrop().Day1,Dayi,Monthi,Yeari);
NoYear := (Yeari = 1901);
IF NoYear THEN
   BEGIN
   IF (Dayi = 0) THEN Dayi := 1;
   Yeari := 9999;
   END;
Nr := 0;
Str(Nr:6:0,Str1);
WRITELN(fHarvest,Str1,Dayi:6,Monthi:6,Yeari:6,Nr:34:3,Nr:20:3,Nr:20:3);
END; (* WriteTitlePart1MultResults *)



PROCEDURE CreateEvalData(NrRun : ShortInt);
VAR dayi, monthi, yeari : INTEGER;
    StrNr,TempString : string;

BEGIN
// open input file with field data
fObs_open(GetObservationsFilefull(), 'r'); // Observations recorded in File
fObs_read(); // description
fObs_read(); // AquaCrop Version number
TempString := fObs_read();
ReadStr(TempString, Zeval); //  depth of sampled soil profile
TempString := fObs_read();
ReadStr(TempString, dayi);
TempString := fObs_read();
ReadStr(TempString, monthi);
TempString := fObs_read();
ReadStr(TempString, yeari);
DetermineDayNr(dayi,monthi,yeari,DayNr1Eval);
fObs_read(); // title
fObs_read(); // title
fObs_read(); // title
fObs_read(); // title
LineNrEval := undef_int;
TempString := fObs_read();
IF (NOT fObs_eof()) THEN
   BEGIN
   LineNrEval := 11;
   ReadStr(TempString, DayNrEval);
   DayNrEval := DayNr1Eval + DayNrEval -1;
   WHILE ((DayNrEval < GetSimulation_FromDayNr()) AND (LineNrEval <> undef_int)) DO
      BEGIN
      TempString := fObs_read();
      IF (fObs_eof())
         THEN LineNrEval := undef_int
         ELSE BEGIN
              LineNrEval := LineNrEval + 1;
              ReadStr(TempString, DayNrEval);
              DayNrEval := DayNr1Eval + DayNrEval -1;
              END;
      END;
   END;
IF (LineNrEval = undef_int) THEN fObs_close();
// open file with simulation results, field data
IF (GetSimulation_MultipleRun() AND (GetSimulation_NrRuns() > 1))
   THEN Str(NrRun:3,StrNr)
   ELSE StrNr := '';
SetfEval_filename(CONCAT(GetPathNameSimul(),'EvalData',Trim(StrNr),'.OUT'));
fEval_open(GetfEval_filename(), 'w');
fEval_write('AquaCrop 7.0 (June 2021) - Output created on (date) : ' + DateToStr(Date) + '   at (time) : ' + TimeToStr(Time));
fEval_write('Evaluation of simulation results - Data');
Str(Zeval:5:2,TempString);
fEval_write('                                                                                     for soil depth: ' + Trim(TempString) + ' m');
fEval_write('   Day Month  Year   DAP Stage   CCsim   CCobs   CCstd    Bsim      Bobs      Bstd   SWCsim  SWCobs   SWstd');
fEval_write('                                   %       %       %     ton/ha    ton/ha    ton/ha    mm       mm      mm');
END; (* CreateEvalData *)




PROCEDURE CreateDailyClimFiles(FromSimDay,ToSimDay : LongInt);
VAR totalname,totalnameOUT : string;
    fETo,fRain,fTemp,fEToS,fRainS,fTempS : text;
    StringREAD : ShortString;
    i : INTEGER;
    RunningDay : LongInt;
    tmpRain : double;
    ETo_temp : double;
    TminDataSet_temp, TmaxDataSet_temp : rep_SimulationEventsDbl;
    Tmin_temp, Tmax_temp : double;
    EToDataSet_temp, RainDataSet_temp : rep_SimulationEventsDbl;
BEGIN
// 1. ETo file
IF (GetEToFile() <> '(None)')
   THEN BEGIN
        totalname := GetEToFilefull();
        IF FileExists(totalname)
           THEN BEGIN
                // open file and find first day of simulation period
                CASE GetEToRecord_DataType() OF
                  Daily   : BEGIN
                            Assign(fETo,totalname);
                            Reset(fETo);
                            READLN(fETo); // description
                            READLN(fETo); // time step
                            READLN(fETo); // day
                            READLN(fETo); // month
                            READLN(fETo); // year
                            READLN(fETo);
                            READLN(fETo);
                            READLN(fETo);
                            FOR i := GetEToRecord_FromDayNr() TO (FromSimDay - 1) DO READLN(fETo);
                            READLN(fETo,ETo_temp);
                            SetETo(ETo_temp);
                            END;
                  Decadely: BEGIN
                            EToDataSet_temp := GetEToDataSet();
                            GetDecadeEToDataSet(FromSimDay,EToDataSet_temp);
                            SetEToDataSet(EToDataSet_temp);
                            i := 1;
                            While (GetEToDataSet_i(i).DayNr <> FromSimDay) Do i := i+1;
                            SetETo(GetEToDataSet_i(i).Param);
                            END;
                  Monthly : BEGIN
                            EToDataSet_temp := GetEToDataSet();
                            GetMonthlyEToDataSet(FromSimDay,EToDataSet_temp);
                            SetEToDataSet(EToDataSet_temp);
                            i := 1;
                            While (GetEToDataSet_i(i).DayNr <> FromSimDay) Do i := i+1;
                            SetETo(GetEToDataSet_i(i).Param);
                            END;
                  end;
                // create SIM file and record first day
                totalnameOUT := CONCAT(GetPathNameSimul(),'EToData.SIM');
                Assign(fEToS,totalnameOUT);
                Rewrite(fEToS);
                WRITELN(fEToS,GetETo():10:4);
                // next days of simulation period
                FOR RunningDay := (FromSimDay + 1) TO ToSimDay DO
                    BEGIN
                    CASE GetEToRecord_DataType() OF
                         Daily   : BEGIN
                                   IF Eof(fETo)
                                      THEN BEGIN
                                           Reset(fETo);
                                           READLN(fETo); // description
                                           READLN(fETo); // time step
                                           READLN(fETo); // day
                                           READLN(fETo); // month
                                           READLN(fETo); // year
                                           READLN(fETo);
                                           READLN(fETo);
                                           READLN(fETo);
                                           READLN(fETo,ETo_temp);
                                           SetETo(ETo_temp);
                                           END
                                      ELSE BEGIN
                                           READLN(fETo,ETo_temp);
                                           SetETo(ETo_temp);
                                           END;
                                   END;
                         Decadely: BEGIN
                                   IF (RunningDay > GetEToDataSet_i(31).DayNr) THEN
                                        BEGIN
                                        EToDataSet_temp := GetEToDataSet();
                                        GetDecadeEToDataSet(RunningDay,EToDataSet_temp);
                                        SetEToDataSet(EToDataSet_temp);
                                        END;
                                   i := 1;
                                   While (GetEToDataSet_i(i).DayNr <> RunningDay) Do i := i+1;
                                   SetETo(GetEToDataSet_i(i).Param);
                                   END;
                         Monthly : BEGIN
                                   IF (RunningDay > GetEToDataSet_i(31).DayNr) THEN
                                        BEGIN
                                        EToDataSet_temp := GetEToDataSet();
                                        GetMonthlyEToDataSet(RunningDay,EToDataSet_temp);
                                        SetEToDataSet(EToDataSet_temp);
                                        END;
                                   i := 1;
                                   While (GetEToDataSet_i(i).DayNr <> RunningDay) Do i := i+1;
                                   SetETo(GetEToDataSet_i(i).Param);
                                   END;
                         end;
                    WRITELN(fEToS,GetETo():10:4);
                    END;
                // Close files
                IF (GetEToRecord_DataType() = Daily) THEN Close(fETo);
                Close(fEToS);
                END
           ELSE BEGIN
                //
                END;
        END;
// 2. Rain File
IF (GetRainFile() <> '(None)')
   THEN BEGIN
        totalname := GetRainFilefull();
        IF FileExists(totalname)
        THEN BEGIN
             // open file and find first day of simulation period
             CASE GetRainRecord_DataType() OF
                  Daily   : BEGIN
                            Assign(fRain,totalname);
                            Reset(fRain);
                            READLN(fRain); // description
                            READLN(fRain); // time step
                            READLN(fRain); // day
                            READLN(fRain); // month
                            READLN(fRain); // year
                            READLN(fRain);
                            READLN(fRain);
                            READLN(fRain);
                            FOR i := GetRainRecord_FromDayNr() TO (FromSimDay - 1) DO READLN(fRain);
                               READLN(fRain,tmpRain);
                               SetRain(tmpRain);
                            END;
                  Decadely: BEGIN
                            RainDataSet_temp := GetRainDataSet();
                            GetDecadeRainDataSet(RunningDay,RainDataSet_temp);
                            SetRainDataSet(RainDataSet_temp);
                            i := 1;
                            While (GetRainDataSet_i(i).DayNr <> FromSimDay) Do i := i+1;
                               SetRain(GetRainDataSet_i(i).Param);
                            END;
                  Monthly : BEGIN
                            RainDataSet_temp := GetRainDataSet();
                            GetMonthlyRainDataSet(RunningDay,RainDataSet_temp);
                            SetRainDataSet(RainDataSet_temp);
                            i := 1;
                            While (GetRainDataSet_i(i).DayNr <> FromSimDay) Do i := i+1;
                               SetRain(GetRainDataSet_i(i).Param);
                            END;
                  end;
                // create SIM file and record first day
                totalnameOUT := CONCAT(GetPathNameSimul(),'RainData.SIM');
                Assign(fRainS,totalnameOUT);
                Rewrite(fRainS);
                WRITELN(fRainS,GetRain():10:4);
                // next days of simulation period
                FOR RunningDay := (FromSimDay + 1) TO ToSimDay DO
                    BEGIN
                    CASE GetRainRecord_DataType() OF
                         Daily   : BEGIN
                                   IF Eof(fRain)
                                      THEN BEGIN
                                           Reset(fRain);
                                           READLN(fRain); // description
                                           READLN(fRain); // time step
                                           READLN(fRain); // day
                                           READLN(fRain); // month
                                           READLN(fRain); // year
                                           READLN(fRain);
                                           READLN(fRain);
                                           READLN(fRain);
                                           READLN(fRain,tmpRain);
                                           SetRain(tmpRain);
                                           END
                                      ELSE BEGIN
                                         READLN(fRain,tmpRain);
                                         SetRain(tmpRain);
                                         END;
                                   END;
                         Decadely: BEGIN
                                   IF (RunningDay > GetRainDataSet_i(31).DayNr) THEN
                                        BEGIN
                                        RainDataSet_temp := GetRainDataSet();
                                        GetDecadeRainDataSet(RunningDay,RainDataSet_temp);
                                        SetRainDataSet(RainDataSet_temp);
                                        END;
                                   i := 1;
                                   While (GetRainDataSet_i(i).DayNr <> RunningDay) Do i := i+1;
                                      SetRain(GetRainDataSet_i(i).Param);
                                   END;
                         Monthly : BEGIN
                                   IF (RunningDay > GetRainDataSet_i(31).DayNr) THEN
                                        BEGIN
                                        RainDataSet_temp := GetRainDataSet();
                                        GetMonthlyRainDataSet(RunningDay,RainDataSet_temp);
                                        SetRainDataSet(RainDataSet_temp);
                                        END;
                                   i := 1;
                                   While (GetRainDataSet_i(i).DayNr <> RunningDay) Do i := i+1;
                                      SetRain(GetRainDataSet_i(i).Param);
                                   END;
                         end;
                    WRITELN(fRainS,GetRain():10:4);
                    END;
             // Close files
             IF (GetRainRecord_DataType() = Daily) THEN Close(fRain);
             Close(fRainS);
             END
        ELSE BEGIN
             //
             END;
        END;

// 3. Temperature file
IF (GetTemperatureFile() <> '(None)')
   THEN BEGIN
        totalname := GetTemperatureFilefull();
        IF FileExists(totalname)
           THEN BEGIN
                // open file and find first day of simulation period
                CASE GetTemperatureRecord().DataType OF
                  Daily   : BEGIN
                            Assign(fTemp,totalname);
                            Reset(fTemp);
                            READLN(fTemp); // description
                            READLN(fTemp); // time step
                            READLN(fTemp); // day
                            READLN(fTemp); // month
                            READLN(fTemp); // year
                            READLN(fTemp);
                            READLN(fTemp);
                            READLN(fTemp);
                            FOR i := GetTemperatureRecord().FromDayNr TO (FromSimDay - 1) DO READLN(fTemp);
                            READLN(fTemp,StringREAD);  // i.e. DayNri
                            Tmin_temp := GetTmin();
                            Tmax_temp := GetTmax();
                            SplitStringInTwoParams(StringREAD,Tmin_temp,Tmax_temp);
                            SetTmin(Tmin_temp);
                            SetTmax(Tmax_temp);
                            END;
                  Decadely: BEGIN
                            TminDataSet_temp := GetTminDataSet();
                            TmaxDataSet_temp := GetTmaxDataSet();